<?xml version="1.0" encoding="UTF-8"?>

<!-- generated on Thứ bảy, 18 Tháng 5 Năm 2019 11:34:18 +07 by Eclipse SUMO netedit Version 1.2.0
<configuration xmlns:xsi="http://www.w3.org/2001/XMLSchema-instance" xsi:noNamespaceSchemaLocation="http://sumo.dlr.de/xsd/netconvertConfiguration.xsd">

    <input>
        <sumo-net-file value="net.net.xml"/>
    </input>

    <output>
        <output-file value="net.net.xml"/>
    </output>

    <processing>
        <geometry.max-grade.fix value="false"/>
        <offset.disable-normalization value="true"/>
        <lefthand value="false"/>
    </processing>

    <junctions>
        <no-internal-links value="false"/>
        <no-turnarounds value="true"/>
        <junctions.corner-detail value="0"/>
        <junctions.limit-turn-speed value="-1"/>
        <rectangular-lane-cut value="false"/>
    </junctions>

    <pedestrian>
        <walkingareas value="false"/>
    </pedestrian>

</configuration>
-->

<net version="1.1" xmlns:xsi="http://www.w3.org/2001/XMLSchema-instance" xsi:noNamespaceSchemaLocation="http://sumo.dlr.de/xsd/net_file.xsd">

    <location netOffset="-680865.62,-1189444.46" convBoundary="-439.66,1.95,1490.18,2443.85" origBoundary="106.654124,10.755565,106.667725,10.777712" projParameter="+proj=utm +zone=48 +ellps=WGS84 +datum=WGS84 +units=m +no_defs"/>

    <type id="highway.bridleway" priority="1" numLanes="1" speed="2.78" allow="pedestrian" oneway="1" width="2.00"/>
    <type id="highway.bus_guideway" priority="1" numLanes="1" speed="8.33" allow="bus" oneway="1"/>
    <type id="highway.cycleway" priority="1" numLanes="1" speed="5.56" allow="bicycle" oneway="0" width="1.00"/>
    <type id="highway.footway" priority="1" numLanes="1" speed="2.78" allow="pedestrian" oneway="1" width="2.00"/>
    <type id="highway.ford" priority="1" numLanes="1" speed="2.78" allow="army" oneway="0"/>
    <type id="highway.living_street" priority="3" numLanes="1" speed="2.78" disallow="tram rail_urban rail rail_electric ship" oneway="0"/>
    <type id="highway.motorway" priority="13" numLanes="2" speed="44.44" allow="private emergency authority army vip passenger hov taxi bus coach delivery truck trailer motorcycle evehicle custom1 custom2" oneway="1"/>
    <type id="highway.motorway_link" priority="12" numLanes="1" speed="22.22" allow="private emergency authority army vip passenger hov taxi bus coach delivery truck trailer motorcycle evehicle custom1 custom2" oneway="1"/>
    <type id="highway.path" priority="1" numLanes="1" speed="2.78" allow="bicycle pedestrian" oneway="1" width="2.00"/>
    <type id="highway.pedestrian" priority="1" numLanes="1" speed="2.78" allow="pedestrian" oneway="1" width="2.00"/>
    <type id="highway.primary" priority="9" numLanes="2" speed="27.78" disallow="tram rail_urban rail rail_electric ship" oneway="0"/>
    <type id="highway.primary_link" priority="8" numLanes="1" speed="22.22" disallow="tram rail_urban rail rail_electric ship" oneway="0"/>
    <type id="highway.raceway" priority="14" numLanes="2" speed="83.33" allow="vip" oneway="0"/>
    <type id="highway.residential" priority="4" numLanes="1" speed="13.89" disallow="tram rail_urban rail rail_electric ship" oneway="0"/>
    <type id="highway.secondary" priority="7" numLanes="2" speed="27.78" disallow="tram rail_urban rail rail_electric ship" oneway="0"/>
    <type id="highway.secondary_link" priority="6" numLanes="1" speed="22.22" disallow="tram rail_urban rail rail_electric ship" oneway="0"/>
    <type id="highway.service" priority="2" numLanes="1" speed="5.56" allow="delivery bicycle pedestrian" oneway="0"/>
    <type id="highway.services" priority="1" numLanes="1" speed="8.33" disallow="tram rail_urban rail rail_electric ship" oneway="0"/>
    <type id="highway.stairs" priority="1" numLanes="1" speed="1.39" allow="pedestrian" oneway="1" width="2.00"/>
    <type id="highway.step" priority="1" numLanes="1" speed="1.39" allow="pedestrian" oneway="1" width="2.00"/>
    <type id="highway.steps" priority="1" numLanes="1" speed="1.39" allow="pedestrian" oneway="1" width="2.00"/>
    <type id="highway.tertiary" priority="6" numLanes="1" speed="22.22" disallow="tram rail_urban rail rail_electric ship" oneway="0"/>
    <type id="highway.tertiary_link" priority="5" numLanes="1" speed="22.22" disallow="tram rail_urban rail rail_electric ship" oneway="0"/>
    <type id="highway.track" priority="1" numLanes="1" speed="5.56" disallow="tram rail_urban rail rail_electric ship" oneway="0"/>
    <type id="highway.trunk" priority="11" numLanes="2" speed="27.78" disallow="tram rail_urban rail rail_electric bicycle pedestrian ship" oneway="0"/>
    <type id="highway.trunk_link" priority="10" numLanes="1" speed="22.22" disallow="tram rail_urban rail rail_electric bicycle pedestrian ship" oneway="0"/>
    <type id="highway.unclassified" priority="5" numLanes="1" speed="13.89" disallow="tram rail_urban rail rail_electric ship" oneway="0"/>
    <type id="highway.unsurfaced" priority="1" numLanes="1" speed="8.33" disallow="tram rail_urban rail rail_electric ship" oneway="0"/>
    <type id="railway.light_rail" priority="15" numLanes="1" speed="27.78" allow="rail_urban" oneway="1"/>
    <type id="railway.preserved" priority="15" numLanes="1" speed="27.78" allow="rail" oneway="1"/>
    <type id="railway.rail" priority="15" numLanes="1" speed="83.33" allow="rail rail_electric" oneway="1"/>
    <type id="railway.subway" priority="15" numLanes="1" speed="27.78" allow="rail_urban" oneway="1"/>
    <type id="railway.tram" priority="15" numLanes="1" speed="13.89" allow="tram" oneway="1"/>

    <edge id=":1997154185_0" function="internal">
        <lane id=":1997154185_0_0" index="0" allow="delivery bicycle pedestrian" speed="5.56" length="4.67" shape="951.03,666.41 952.08,665.42 952.95,665.21 953.64,665.78 954.15,667.13"/>
    </edge>
    <edge id=":1997154204_0" function="internal">
        <lane id=":1997154204_0_0" index="0" disallow="tram rail_urban rail rail_electric ship" speed="13.89" length="8.25" shape="1000.94,955.31 1000.81,957.22 1001.31,959.04 1002.43,960.78 1004.17,962.42"/>
    </edge>
    <edge id=":1997154204_1" function="internal">
        <lane id=":1997154204_1_0" index="0" disallow="tram rail_urban rail rail_electric ship" speed="13.89" length="2.56" shape="1000.94,955.31 999.90,956.31 999.03,956.53 998.86,956.39"/>
    </edge>
    <edge id=":1997154204_4" function="internal">
        <lane id=":1997154204_4_0" index="0" disallow="tram rail_urban rail rail_electric ship" speed="13.89" length="2.11" shape="998.86,956.39 998.34,955.96 997.82,954.62"/>
    </edge>
    <edge id=":1997154204_2" function="internal">
        <lane id=":1997154204_2_0" index="0" disallow="tram rail_urban rail rail_electric ship" speed="13.89" length="8.40" shape="991.96,960.04 994.18,959.18 995.90,957.99 997.11,956.47 997.82,954.62"/>
    </edge>
    <edge id=":1997154204_3" function="internal">
        <lane id=":1997154204_3_0" index="0" disallow="tram rail_urban rail rail_electric ship" speed="13.89" length="12.92" shape="991.96,960.04 995.25,959.48 998.38,959.69 1001.35,960.67 1004.17,962.42"/>
    </edge>
    <edge id=":1997154204_w0" function="walkingarea">
        <lane id=":1997154204_w0_0" index="0" allow="pedestrian" speed="1.00" length="8.61" width="3.20" shape="1003.18,963.68 1005.15,961.15 1002.50,955.66 999.38,954.97 999.38,954.97 996.26,954.27 991.52,958.50 992.39,961.58"/>
    </edge>
    <edge id=":1997154260_0" function="internal">
        <lane id=":1997154260_0_0" index="0" disallow="tram rail_urban rail rail_electric ship" speed="13.89" length="4.67" shape="1009.85,681.39 1010.88,680.37 1011.74,680.14 1012.44,680.70 1012.99,682.03"/>
    </edge>
    <edge id=":1997154268_0" function="internal">
        <lane id=":1997154268_0_0" index="0" disallow="tram rail_urban rail rail_electric ship" speed="13.89" length="9.05" shape="1020.61,892.91 1018.14,892.72 1016.20,893.37 1014.79,894.85 1013.91,897.17"/>
    </edge>
    <edge id=":1997154268_1" function="internal">
        <lane id=":1997154268_1_0" index="0" disallow="tram rail_urban rail rail_electric ship" speed="13.89" length="14.41" shape="1020.61,892.91 1006.54,889.79"/>
    </edge>
    <edge id=":1997154268_2" function="internal">
        <lane id=":1997154268_2_0" index="0" disallow="tram rail_urban rail rail_electric ship" speed="13.89" length="6.91" shape="1020.61,892.91 1017.90,891.76 1015.42,889.76 1014.98,889.12"/>
    </edge>
    <edge id=":1997154268_3" function="internal">
        <lane id=":1997154268_3_0" index="0" disallow="tram rail_urban rail rail_electric ship" speed="13.89" length="2.34" shape="1020.61,892.91 1019.61,891.87 1019.40,891.01"/>
    </edge>
    <edge id=":1997154268_16" function="internal">
        <lane id=":1997154268_16_0" index="0" disallow="tram rail_urban rail rail_electric ship" speed="13.89" length="4.64" shape="1014.98,889.12 1013.73,887.33 1013.38,884.89"/>
    </edge>
    <edge id=":1997154268_17" function="internal">
        <lane id=":1997154268_17_0" index="0" disallow="tram rail_urban rail rail_electric ship" speed="13.89" length="2.34" shape="1019.40,891.01 1019.96,890.31 1021.31,889.79"/>
    </edge>
    <edge id=":1997154268_4" function="internal">
        <lane id=":1997154268_4_0" index="0" disallow="tram rail_urban rail rail_electric ship" speed="13.89" length="7.10" shape="1016.51,885.60 1016.55,886.98 1017.37,888.13 1018.95,889.07 1021.31,889.79"/>
    </edge>
    <edge id=":1997154268_5" function="internal">
        <lane id=":1997154268_5_0" index="0" disallow="tram rail_urban rail rail_electric ship" speed="13.89" length="11.86" shape="1016.51,885.60 1013.91,897.17"/>
    </edge>
    <edge id=":1997154268_6" function="internal">
        <lane id=":1997154268_6_0" index="0" disallow="tram rail_urban rail rail_electric ship" speed="13.89" length="11.56" shape="1016.51,885.60 1015.15,887.65 1012.58,889.13 1009.49,889.89 1006.54,889.79"/>
    </edge>
    <edge id=":1997154268_7" function="internal">
        <lane id=":1997154268_7_0" index="0" disallow="tram rail_urban rail rail_electric ship" speed="13.89" length="4.67" shape="1016.51,885.60 1015.46,886.59 1014.59,886.81 1013.90,886.24 1013.38,884.89"/>
    </edge>
    <edge id=":1997154268_8" function="internal">
        <lane id=":1997154268_8_0" index="0" disallow="tram rail_urban rail rail_electric ship" speed="13.89" length="7.12" shape="1007.24,886.66 1009.67,887.01 1011.51,886.83 1012.75,886.13 1013.38,884.89"/>
    </edge>
    <edge id=":1997154268_9" function="internal">
        <lane id=":1997154268_9_0" index="0" disallow="tram rail_urban rail rail_electric ship" speed="13.89" length="14.41" shape="1007.24,886.66 1021.31,889.79"/>
    </edge>
    <edge id=":1997154268_10" function="internal">
        <lane id=":1997154268_10_0" index="0" disallow="tram rail_urban rail rail_electric ship" speed="13.89" length="5.93" shape="1007.24,886.66 1010.12,888.12 1011.91,890.14"/>
    </edge>
    <edge id=":1997154268_11" function="internal">
        <lane id=":1997154268_11_0" index="0" disallow="tram rail_urban rail rail_electric ship" speed="13.89" length="2.34" shape="1007.24,886.66 1008.23,887.71 1008.45,888.57"/>
    </edge>
    <edge id=":1997154268_18" function="internal">
        <lane id=":1997154268_18_0" index="0" disallow="tram rail_urban rail rail_electric ship" speed="13.89" length="7.51" shape="1011.91,890.14 1012.43,890.74 1013.82,893.94 1013.91,897.17"/>
    </edge>
    <edge id=":1997154268_19" function="internal">
        <lane id=":1997154268_19_0" index="0" disallow="tram rail_urban rail rail_electric ship" speed="13.89" length="2.34" shape="1008.45,888.57 1007.89,889.27 1006.54,889.79"/>
    </edge>
    <edge id=":1997154268_12" function="internal">
        <lane id=":1997154268_12_0" index="0" disallow="tram rail_urban rail rail_electric ship" speed="13.89" length="9.03" shape="1010.79,896.47 1010.98,894.00 1010.34,892.07 1008.86,890.66 1006.54,889.79"/>
    </edge>
    <edge id=":1997154268_13" function="internal">
        <lane id=":1997154268_13_0" index="0" disallow="tram rail_urban rail rail_electric ship" speed="13.89" length="11.86" shape="1010.79,896.47 1013.38,884.89"/>
    </edge>
    <edge id=":1997154268_14" function="internal">
        <lane id=":1997154268_14_0" index="0" disallow="tram rail_urban rail rail_electric ship" speed="13.89" length="13.45" shape="1010.79,896.47 1012.25,893.59 1014.87,891.27 1018.08,889.88 1021.31,889.79"/>
    </edge>
    <edge id=":1997154268_15" function="internal">
        <lane id=":1997154268_15_0" index="0" disallow="tram rail_urban rail rail_electric ship" speed="13.89" length="4.67" shape="1010.79,896.47 1011.83,895.47 1012.70,895.26 1013.39,895.82 1013.91,897.17"/>
    </edge>
    <edge id=":1997154268_w0" function="walkingarea">
        <lane id=":1997154268_w0_0" index="0" allow="pedestrian" speed="1.00" length="9.71" width="3.20" shape="1020.27,894.48 1020.96,891.35 1020.96,891.35 1021.65,888.23 1018.07,885.95 1014.94,885.25 1014.94,885.25 1011.82,884.54 1007.58,885.10 1006.89,888.23 1006.89,888.23 1006.20,891.35 1009.23,896.12 1012.35,896.82 1012.35,896.82 1015.48,897.52"/>
    </edge>
    <edge id=":1997154438_0" function="internal">
        <lane id=":1997154438_0_0" index="0" allow="delivery bicycle pedestrian" speed="9.72" length="5.05" shape="933.69,770.87 932.30,770.74 931.22,771.09 930.46,771.93 930.00,773.24"/>
    </edge>
    <edge id=":1997154438_1" function="internal">
        <lane id=":1997154438_1_0" index="0" disallow="tram rail_urban rail rail_electric ship" speed="13.89" length="9.58" shape="933.69,770.87 924.37,768.64"/>
    </edge>
    <edge id=":1997154438_2" function="internal">
        <lane id=":1997154438_2_0" index="0" allow="delivery bicycle pedestrian" speed="9.72" length="2.10" shape="933.69,770.87 931.73,770.10"/>
    </edge>
    <edge id=":1997154438_3" function="internal">
        <lane id=":1997154438_3_0" index="0" disallow="tram rail_urban rail rail_electric ship" speed="13.89" length="2.34" shape="933.69,770.87 932.70,769.81 932.50,768.94"/>
    </edge>
    <edge id=":1997154438_16" function="internal">
        <lane id=":1997154438_16_0" index="0" allow="delivery bicycle pedestrian" speed="9.72" length="8.20" shape="931.73,770.10 931.04,769.83 929.35,768.21 928.62,766.01 928.85,763.22"/>
    </edge>
    <edge id=":1997154438_17" function="internal">
        <lane id=":1997154438_17_0" index="0" disallow="tram rail_urban rail rail_electric ship" speed="13.89" length="2.34" shape="932.50,768.94 933.08,768.25 934.43,767.75"/>
    </edge>
    <edge id=":1997154438_4" function="internal">
        <lane id=":1997154438_4_0" index="0" disallow="tram rail_urban rail rail_electric ship" speed="9.72" length="5.17" shape="931.97,763.93 931.86,765.32 932.23,766.42 933.09,767.23 934.43,767.75"/>
    </edge>
    <edge id=":1997154438_5" function="internal">
        <lane id=":1997154438_5_0" index="0" allow="delivery bicycle pedestrian" speed="5.56" length="9.52" shape="931.97,763.93 930.00,773.24"/>
    </edge>
    <edge id=":1997154438_6" function="internal">
        <lane id=":1997154438_6_0" index="0" disallow="tram rail_urban rail rail_electric ship" speed="9.72" length="10.21" shape="931.97,763.93 930.96,766.55 929.36,768.20 927.16,768.90 924.37,768.64"/>
    </edge>
    <edge id=":1997154438_7" function="internal">
        <lane id=":1997154438_7_0" index="0" allow="delivery bicycle pedestrian" speed="5.56" length="4.67" shape="931.97,763.93 930.92,764.92 930.05,765.13 929.36,764.57 928.85,763.22"/>
    </edge>
    <edge id=":1997154438_8" function="internal">
        <lane id=":1997154438_8_0" index="0" allow="delivery bicycle pedestrian" speed="9.72" length="5.01" shape="925.12,765.53 926.49,765.66 927.57,765.31 928.35,764.50 928.85,763.22"/>
    </edge>
    <edge id=":1997154438_9" function="internal">
        <lane id=":1997154438_9_0" index="0" disallow="tram rail_urban rail rail_electric ship" speed="13.89" length="9.57" shape="925.12,765.53 934.43,767.75"/>
    </edge>
    <edge id=":1997154438_10" function="internal">
        <lane id=":1997154438_10_0" index="0" allow="delivery bicycle pedestrian" speed="9.72" length="2.05" shape="925.12,765.53 927.03,766.29"/>
    </edge>
    <edge id=":1997154438_11" function="internal">
        <lane id=":1997154438_11_0" index="0" disallow="tram rail_urban rail rail_electric ship" speed="13.89" length="2.34" shape="925.12,765.53 926.10,766.58 926.30,767.46"/>
    </edge>
    <edge id=":1997154438_18" function="internal">
        <lane id=":1997154438_18_0" index="0" allow="delivery bicycle pedestrian" speed="9.72" length="8.26" shape="927.03,766.29 927.71,766.56 929.39,768.19 930.15,770.42 930.00,773.24"/>
    </edge>
    <edge id=":1997154438_19" function="internal">
        <lane id=":1997154438_19_0" index="0" disallow="tram rail_urban rail rail_electric ship" speed="13.89" length="2.34" shape="926.30,767.46 925.73,768.14 924.37,768.64"/>
    </edge>
    <edge id=":1997154438_12" function="internal">
        <lane id=":1997154438_12_0" index="0" disallow="tram rail_urban rail rail_electric ship" speed="9.72" length="5.32" shape="926.86,772.64 926.94,771.17 926.55,770.01 925.70,769.17 924.37,768.64"/>
    </edge>
    <edge id=":1997154438_13" function="internal">
        <lane id=":1997154438_13_0" index="0" allow="delivery bicycle pedestrian" speed="5.56" length="9.63" shape="926.86,772.64 928.85,763.22"/>
    </edge>
    <edge id=":1997154438_14" function="internal">
        <lane id=":1997154438_14_0" index="0" disallow="tram rail_urban rail rail_electric ship" speed="9.72" length="10.37" shape="926.86,772.64 927.80,769.94 929.37,768.22 931.58,767.49 934.43,767.75"/>
    </edge>
    <edge id=":1997154438_15" function="internal">
        <lane id=":1997154438_15_0" index="0" allow="delivery bicycle pedestrian" speed="5.56" length="4.67" shape="926.86,772.64 927.87,771.61 928.73,771.37 929.44,771.91 930.00,773.24"/>
    </edge>
    <edge id=":1997154438_w0" function="walkingarea">
        <lane id=":1997154438_w0_0" index="0" allow="pedestrian" speed="1.00" length="7.24" width="3.20" shape="933.32,772.42 934.06,769.31 934.06,769.31 934.80,766.20 933.53,764.29 930.41,763.57 930.41,763.57 927.29,762.86 925.50,763.97 924.75,767.08 924.75,767.08 924.00,770.19 925.29,772.33 928.43,772.94 928.43,772.94 931.57,773.55"/>
    </edge>
    <edge id=":1997154462_0" function="internal">
        <lane id=":1997154462_0_0" index="0" disallow="tram rail_urban rail rail_electric ship" speed="13.89" length="9.72" shape="950.78,778.19 949.42,776.45 947.65,775.00 945.45,773.87 942.83,773.04"/>
    </edge>
    <edge id=":1997154462_1" function="internal">
        <lane id=":1997154462_1_0" index="0" disallow="tram rail_urban rail rail_electric ship" speed="13.89" length="4.09" shape="950.78,778.19 949.60,775.57 949.40,774.37"/>
    </edge>
    <edge id=":1997154462_2" function="internal">
        <lane id=":1997154462_2_0" index="0" disallow="tram rail_urban rail rail_electric ship" speed="13.89" length="2.14" shape="950.78,778.19 950.85,776.75 951.22,776.17"/>
    </edge>
    <edge id=":1997154462_9" function="internal">
        <lane id=":1997154462_9_0" index="0" disallow="tram rail_urban rail rail_electric ship" speed="13.89" length="8.17" shape="949.40,774.37 949.11,772.72 949.29,769.64 950.15,766.34"/>
    </edge>
    <edge id=":1997154462_10" function="internal">
        <lane id=":1997154462_10_0" index="0" disallow="tram rail_urban rail rail_electric ship" speed="13.89" length="2.54" shape="951.22,776.17 951.32,776.00 952.22,775.93 953.52,776.54"/>
    </edge>
    <edge id=":1997154462_3" function="internal">
        <lane id=":1997154462_3_0" index="0" disallow="tram rail_urban rail rail_electric ship" speed="13.89" length="9.45" shape="953.17,767.40 952.48,770.00 952.31,772.39 952.65,774.57 953.52,776.54"/>
    </edge>
    <edge id=":1997154462_4" function="internal">
        <lane id=":1997154462_4_0" index="0" disallow="tram rail_urban rail rail_electric ship" speed="13.89" length="13.15" shape="953.17,767.40 951.54,770.56 949.27,772.55 946.37,773.38 942.83,773.04"/>
    </edge>
    <edge id=":1997154462_5" function="internal">
        <lane id=":1997154462_5_0" index="0" disallow="tram rail_urban rail rail_electric ship" speed="13.89" length="4.67" shape="953.17,767.40 952.02,768.27 951.13,768.38 950.51,767.74 950.15,766.34"/>
    </edge>
    <edge id=":1997154462_6" function="internal">
        <lane id=":1997154462_6_0" index="0" disallow="tram rail_urban rail rail_electric ship" speed="13.89" length="8.37" shape="943.57,769.93 945.82,770.14 947.67,769.62 949.11,768.35 950.15,766.34"/>
    </edge>
    <edge id=":1997154462_7" function="internal">
        <lane id=":1997154462_7_0" index="0" disallow="tram rail_urban rail rail_electric ship" speed="13.89" length="12.26" shape="943.57,769.93 946.80,770.97 949.54,772.41 951.78,774.27 953.52,776.54"/>
    </edge>
    <edge id=":1997154462_8" function="internal">
        <lane id=":1997154462_8_0" index="0" disallow="tram rail_urban rail rail_electric ship" speed="13.89" length="2.46" shape="943.57,769.93 944.55,770.99 944.76,771.86 944.68,771.95"/>
    </edge>
    <edge id=":1997154462_11" function="internal">
        <lane id=":1997154462_11_0" index="0" disallow="tram rail_urban rail rail_electric ship" speed="13.89" length="2.22" shape="944.68,771.95 944.18,772.54 942.83,773.04"/>
    </edge>
    <edge id=":1997154462_w0" function="walkingarea">
        <lane id=":1997154462_w0_0" index="0" allow="pedestrian" speed="1.00" length="9.01" width="3.20" shape="949.41,779.02 952.15,777.37 952.15,777.37 954.89,775.71 954.68,767.93 951.66,766.87 951.66,766.87 948.64,765.81 943.94,768.37 943.20,771.49 943.20,771.49 942.46,774.60"/>
    </edge>
    <edge id=":1997154488_0" function="internal">
        <lane id=":1997154488_0_0" index="0" disallow="tram rail_urban rail rail_electric ship" speed="13.89" length="4.67" shape="1099.81,808.72 1100.79,809.78 1101.00,810.65 1100.42,811.33 1099.07,811.84"/>
    </edge>
    <edge id=":1997154576_0" function="internal">
        <lane id=":1997154576_0_0" index="0" disallow="tram rail_urban rail rail_electric ship" speed="13.89" length="7.31" shape="1022.20,881.00 1019.88,882.24 1018.17,883.39 1017.06,884.44 1016.55,885.40"/>
    </edge>
    <edge id=":1997154576_1" function="internal">
        <lane id=":1997154576_1_0" index="0" disallow="tram rail_urban rail rail_electric ship" speed="13.89" length="13.31" shape="1022.20,881.00 1018.77,882.12 1015.73,881.94 1013.07,880.45 1010.79,877.65"/>
    </edge>
    <edge id=":1997154576_2" function="internal">
        <lane id=":1997154576_2_0" index="0" disallow="tram rail_urban rail rail_electric ship" speed="13.89" length="4.67" shape="1022.20,881.00 1020.77,880.81 1020.06,880.27 1020.06,879.38 1020.79,878.13"/>
    </edge>
    <edge id=":1997154576_3" function="internal">
        <lane id=":1997154576_3_0" index="0" disallow="tram rail_urban rail rail_electric ship" speed="13.89" length="8.47" shape="1013.53,875.99 1014.98,877.78 1016.67,878.72 1018.61,878.84 1020.79,878.13"/>
    </edge>
    <edge id=":1997154576_4" function="internal">
        <lane id=":1997154576_4_0" index="0" disallow="tram rail_urban rail rail_electric ship" speed="13.89" length="10.33" shape="1013.53,875.99 1015.23,878.57 1016.40,880.48 1016.89,882.49 1016.55,885.40"/>
    </edge>
    <edge id=":1997154576_5" function="internal">
        <lane id=":1997154576_5_0" index="0" disallow="tram rail_urban rail rail_electric ship" speed="13.89" length="2.22" shape="1013.53,875.99 1013.47,877.44 1013.05,878.10"/>
    </edge>
    <edge id=":1997154576_9" function="internal">
        <lane id=":1997154576_9_0" index="0" disallow="tram rail_urban rail rail_electric ship" speed="13.89" length="2.45" shape="1013.05,878.10 1012.99,878.19 1012.10,878.26 1010.79,877.65"/>
    </edge>
    <edge id=":1997154576_6" function="internal">
        <lane id=":1997154576_6_0" index="0" disallow="tram rail_urban rail rail_electric ship" speed="13.89" length="7.88" shape="1013.43,884.70 1013.64,882.50 1013.15,881.00 1012.14,879.59 1010.79,877.65"/>
    </edge>
    <edge id=":1997154576_7" function="internal">
        <lane id=":1997154576_7_0" index="0" disallow="tram rail_urban rail rail_electric ship" speed="13.89" length="3.25" shape="1013.43,884.70 1014.17,883.04 1015.12,881.98"/>
    </edge>
    <edge id=":1997154576_8" function="internal">
        <lane id=":1997154576_8_0" index="0" disallow="tram rail_urban rail rail_electric ship" speed="13.89" length="2.15" shape="1013.43,884.70 1014.47,883.70 1015.16,883.53"/>
    </edge>
    <edge id=":1997154576_10" function="internal">
        <lane id=":1997154576_10_0" index="0" disallow="tram rail_urban rail rail_electric ship" speed="13.89" length="6.89" shape="1015.12,881.98 1015.64,881.39 1017.85,879.76 1020.79,878.13"/>
    </edge>
    <edge id=":1997154576_11" function="internal">
        <lane id=":1997154576_11_0" index="0" disallow="tram rail_urban rail rail_electric ship" speed="13.89" length="2.52" shape="1015.16,883.53 1015.34,883.49 1016.03,884.06 1016.55,885.40"/>
    </edge>
    <edge id=":1997154576_w0" function="walkingarea">
        <lane id=":1997154576_w0_0" index="0" allow="pedestrian" speed="1.00" length="7.99" width="3.20" shape="1022.90,882.44 1021.49,879.57 1021.49,879.57 1020.09,876.69 1014.90,875.17 1012.16,876.82 1012.16,876.82 1009.42,878.47 1011.87,884.35 1014.99,885.05 1014.99,885.05 1018.11,885.75"/>
    </edge>
    <edge id=":1997154605_0" function="internal">
        <lane id=":1997154605_0_0" index="0" disallow="tram rail_urban rail rail_electric ship" speed="13.89" length="8.38" shape="999.22,985.81 996.97,986.63 995.22,987.78 993.98,989.26 993.24,991.07"/>
    </edge>
    <edge id=":1997154605_1" function="internal">
        <lane id=":1997154605_1_0" index="0" disallow="tram rail_urban rail rail_electric ship" speed="13.89" length="10.46" shape="999.22,985.81 996.26,986.42 994.10,986.39 991.98,985.78 989.12,984.66"/>
    </edge>
    <edge id=":1997154605_2" function="internal">
        <lane id=":1997154605_2_0" index="0" disallow="tram rail_urban rail rail_electric ship" speed="13.89" length="6.20" shape="990.13,990.30 990.51,988.15 990.47,986.50 990.00,985.33 989.12,984.66"/>
    </edge>
    <edge id=":1997154605_3" function="internal">
        <lane id=":1997154605_3_0" index="0" disallow="tram rail_urban rail rail_electric ship" speed="13.89" length="2.56" shape="990.13,990.30 991.20,989.33 992.07,989.13 992.24,989.28"/>
    </edge>
    <edge id=":1997154605_4" function="internal">
        <lane id=":1997154605_4_0" index="0" disallow="tram rail_urban rail rail_electric ship" speed="13.89" length="2.11" shape="992.24,989.28 992.75,989.71 993.24,991.07"/>
    </edge>
    <edge id=":1997154605_w0" function="walkingarea">
        <lane id=":1997154605_w0_0" index="0" allow="pedestrian" speed="1.00" length="7.47" width="3.20" shape="999.63,987.36 998.81,984.26 989.70,983.17 988.54,986.15 988.58,989.91 991.68,990.68 991.68,990.68 994.79,991.45"/>
    </edge>
    <edge id=":2302073724_0" function="internal">
        <lane id=":2302073724_0_0" index="0" disallow="taxi bus truck pedestrian" speed="13.89" length="13.87" width="3.50" shape="681.39,849.71 678.88,851.83 676.50,853.33 674.35,855.26 672.57,858.63"/>
        <lane id=":2302073724_0_1" index="1" disallow="pedestrian" speed="13.89" length="13.87" width="3.50" shape="681.39,849.71 678.41,851.52 674.96,852.42 671.70,853.91 669.27,857.46"/>
    </edge>
    <edge id=":2302073724_2" function="internal">
        <lane id=":2302073724_2_0" index="0" disallow="tram rail_urban rail rail_electric ship" speed="13.89" length="48.24" shape="681.39,849.71 670.56,858.71 662.19,859.44 656.27,851.91 652.81,836.12"/>
    </edge>
    <edge id=":2302073724_3" function="internal">
        <lane id=":2302073724_3_0" index="0" disallow="taxi bus truck" speed="13.89" length="7.01" shape="681.39,849.71 675.18,852.95"/>
    </edge>
    <edge id=":2302073724_4" function="internal">
        <lane id=":2302073724_4_0" index="0" disallow="motorcycle bicycle" speed="13.89" length="6.34" shape="681.39,849.71 675.71,852.53"/>
    </edge>
    <edge id=":2302073724_5" function="internal">
        <lane id=":2302073724_5_0" index="0" disallow="tram rail_urban rail rail_electric ship" speed="13.89" length="2.34" shape="681.39,849.71 680.06,850.03 679.25,849.79 679.21,849.68"/>
    </edge>
    <edge id=":2302073724_24" function="internal">
        <lane id=":2302073724_24_0" index="0" disallow="taxi bus truck" speed="13.89" length="26.97" shape="675.18,852.95 673.66,853.75 666.05,851.72 660.90,845.31 660.57,836.17"/>
    </edge>
    <edge id=":2302073724_25" function="internal">
        <lane id=":2302073724_25_0" index="0" disallow="motorcycle bicycle" speed="13.89" length="19.36" shape="675.71,852.53 670.32,850.48 666.80,845.10 666.72,837.94"/>
    </edge>
    <edge id=":2302073724_26" function="internal">
        <lane id=":2302073724_26_0" index="0" disallow="tram rail_urban rail rail_electric ship" speed="13.89" length="2.10" shape="679.21,849.68 678.95,849.00 679.17,847.65"/>
    </edge>
    <edge id=":2302073724_6" function="internal">
        <lane id=":2302073724_6_0" index="0" disallow="tram rail_urban rail rail_electric ship" speed="13.89" length="15.19" shape="675.94,840.60 674.49,846.77 674.55,850.00 676.11,850.29 679.17,847.65"/>
    </edge>
    <edge id=":2302073724_7" function="internal">
        <lane id=":2302073724_7_0" index="0" disallow="taxi bus truck pedestrian" speed="13.89" length="18.12" width="3.50" shape="675.94,840.60 674.77,845.92 674.45,849.68 674.03,853.40 672.57,858.63"/>
        <lane id=":2302073724_7_1" index="1" disallow="pedestrian" speed="13.89" length="18.12" width="3.50" shape="672.87,839.72 669.27,857.46"/>