<?xml version="1.0" encoding="UTF-8"?>

<!-- generated on Thu May  2 17:37:52 2019 by Eclipse SUMO netedit Version 1.1.0
<configuration xmlns:xsi="http://www.w3.org/2001/XMLSchema-instance" xsi:noNamespaceSchemaLocation="http://sumo.dlr.de/xsd/netconvertConfiguration.xsd">

    <input>
        <sumo-net-file value="net.net.xml"/>
    </input>

    <output>
        <output-file value="net.net.xml"/>
    </output>

    <processing>
        <geometry.max-grade.fix value="false"/>
        <offset.disable-normalization value="true"/>
        <lefthand value="false"/>
    </processing>

    <junctions>
        <no-turnarounds value="true"/>
        <junctions.corner-detail value="5"/>
        <junctions.limit-turn-speed value="5.5"/>
        <rectangular-lane-cut value="false"/>
    </junctions>

    <pedestrian>
        <walkingareas value="false"/>
    </pedestrian>

</configuration>
-->

<net version="1.1" junctionCornerDetail="5" limitTurnSpeed="5.50" xmlns:xsi="http://www.w3.org/2001/XMLSchema-instance" xsi:noNamespaceSchemaLocation="http://sumo.dlr.de/xsd/net_file.xsd">

    <location netOffset="-680438.36,-1190968.88" convBoundary="0.00,2.45,861.49,666.36" origBoundary="106.650230,10.769398,106.658102,10.775419" projParameter="+proj=utm +zone=48 +ellps=WGS84 +datum=WGS84 +units=m +no_defs"/>

    <type id="highway.bridleway" priority="1" numLanes="1" speed="2.78" allow="pedestrian" oneway="1" width="2.00"/>
    <type id="highway.bus_guideway" priority="1" numLanes="1" speed="27.78" allow="bus" oneway="1"/>
    <type id="highway.cycleway" priority="1" numLanes="1" speed="8.33" allow="bicycle" oneway="0" width="1.00"/>
    <type id="highway.footway" priority="1" numLanes="1" speed="2.78" allow="pedestrian" oneway="1" width="2.00"/>
    <type id="highway.ford" priority="1" numLanes="1" speed="2.78" allow="army" oneway="0"/>
    <type id="highway.living_street" priority="3" numLanes="1" speed="2.78" disallow="tram rail_urban rail rail_electric ship" oneway="0"/>
    <type id="highway.motorway" priority="13" numLanes="2" speed="44.44" allow="private emergency authority army vip passenger hov taxi bus coach delivery truck trailer motorcycle evehicle custom1 custom2" oneway="1"/>
    <type id="highway.motorway_link" priority="12" numLanes="1" speed="22.22" allow="private emergency authority army vip passenger hov taxi bus coach delivery truck trailer motorcycle evehicle custom1 custom2" oneway="1"/>
    <type id="highway.path" priority="1" numLanes="1" speed="2.78" allow="bicycle pedestrian" oneway="1" width="2.00"/>
    <type id="highway.pedestrian" priority="1" numLanes="1" speed="2.78" allow="pedestrian" oneway="1" width="2.00"/>
    <type id="highway.primary" priority="9" numLanes="2" speed="27.78" disallow="tram rail_urban rail rail_electric ship" oneway="0"/>
    <type id="highway.primary_link" priority="8" numLanes="1" speed="22.22" disallow="tram rail_urban rail rail_electric ship" oneway="0"/>
    <type id="highway.raceway" priority="14" numLanes="2" speed="83.33" allow="vip" oneway="0"/>
    <type id="highway.residential" priority="4" numLanes="1" speed="13.89" disallow="tram rail_urban rail rail_electric ship" oneway="0"/>
    <type id="highway.secondary" priority="7" numLanes="2" speed="27.78" disallow="tram rail_urban rail rail_electric ship" oneway="0"/>
    <type id="highway.secondary_link" priority="6" numLanes="1" speed="22.22" disallow="tram rail_urban rail rail_electric ship" oneway="0"/>
    <type id="highway.service" priority="2" numLanes="1" speed="5.56" allow="delivery bicycle pedestrian" oneway="0"/>
    <type id="highway.stairs" priority="1" numLanes="1" speed="1.39" allow="pedestrian" oneway="1" width="2.00"/>
    <type id="highway.step" priority="1" numLanes="1" speed="1.39" allow="pedestrian" oneway="1" width="2.00"/>
    <type id="highway.steps" priority="1" numLanes="1" speed="1.39" allow="pedestrian" oneway="1" width="2.00"/>
    <type id="highway.tertiary" priority="6" numLanes="1" speed="22.22" disallow="tram rail_urban rail rail_electric ship" oneway="0"/>
    <type id="highway.tertiary_link" priority="5" numLanes="1" speed="22.22" disallow="tram rail_urban rail rail_electric ship" oneway="0"/>
    <type id="highway.track" priority="1" numLanes="1" speed="5.56" disallow="tram rail_urban rail rail_electric ship" oneway="0"/>
    <type id="highway.trunk" priority="11" numLanes="2" speed="27.78" disallow="tram rail_urban rail rail_electric bicycle pedestrian ship" oneway="0"/>
    <type id="highway.trunk_link" priority="10" numLanes="1" speed="22.22" disallow="tram rail_urban rail rail_electric bicycle pedestrian ship" oneway="0"/>
    <type id="highway.unclassified" priority="5" numLanes="1" speed="13.89" disallow="tram rail_urban rail rail_electric ship" oneway="0"/>
    <type id="highway.unsurfaced" priority="1" numLanes="1" speed="8.33" disallow="tram rail_urban rail rail_electric ship" oneway="0"/>
    <type id="railway.light_rail" priority="15" numLanes="1" speed="27.78" allow="rail_urban" oneway="1"/>
    <type id="railway.preserved" priority="15" numLanes="1" speed="27.78" allow="rail" oneway="1"/>
    <type id="railway.rail" priority="15" numLanes="1" speed="83.33" allow="rail rail_electric" oneway="1"/>
    <type id="railway.subway" priority="15" numLanes="1" speed="27.78" allow="rail_urban" oneway="1"/>
    <type id="railway.tram" priority="15" numLanes="1" speed="13.89" allow="tram" oneway="1"/>

    <edge id=":2302073722_0" function="internal">
        <lane id=":2302073722_0_0" index="0" disallow="tram rail_urban rail rail_electric ship" speed="3.65" length="4.67" shape="797.32,339.88 798.06,341.12 798.07,342.01 797.37,342.56 795.94,342.76"/>
    </edge>
    <edge id=":2495826718_0" function="internal">
        <lane id=":2495826718_0_0" index="0" disallow="tram rail_urban rail rail_electric ship" speed="5.83" length="10.96" shape="306.75,39.26 306.85,36.16 308.01,34.72 310.22,34.93 313.50,36.81"/>
    </edge>
    <edge id=":2495826718_1" function="internal">
        <lane id=":2495826718_1_0" index="0" disallow="tram rail_urban rail rail_electric ship" speed="3.65" length="4.67" shape="306.75,39.26 307.41,37.98 308.16,37.49 309.00,37.81 309.93,38.91"/>
    </edge>
    <edge id=":2495826723_0" function="internal">
        <lane id=":2495826723_0_0" index="0" disallow="taxi bus truck" speed="13.89" length="9.48" shape="403.80,187.59 394.66,189.10"/>
        <lane id=":2495826723_0_1" index="1" speed="13.89" length="9.48" shape="403.42,184.41 394.06,185.96"/>
        <lane id=":2495826723_0_2" index="2" disallow="motorcycle bicycle" speed="13.89" length="9.48" shape="403.03,181.24 393.46,182.82"/>
    </edge>
    <edge id=":2495826723_3" function="internal">
        <lane id=":2495826723_3_0" index="0" disallow="taxi bus truck" speed="6.97" length="8.77" shape="394.96,167.66 396.01,169.67 397.52,171.01 399.47,171.69 401.88,171.70"/>
    </edge>
    <edge id=":2495826723_4" function="internal">
        <lane id=":2495826723_4_0" index="0" speed="7.77" length="11.08" shape="394.96,167.66 396.44,171.02 398.16,173.35 400.10,174.64 402.27,174.88"/>
    </edge>
    <edge id=":2495826723_5" function="internal">
        <lane id=":2495826723_5_0" index="0" speed="8.99" length="20.26" shape="394.96,167.66 397.15,175.17 397.73,180.73 396.70,184.32 394.06,185.96"/>
    </edge>
    <edge id=":2495826723_6" function="internal">
        <lane id=":2495826723_6_0" index="0" disallow="motorcycle bicycle" speed="8.29" length="17.06" shape="394.96,167.66 396.71,173.83 397.04,178.42 395.96,181.41 393.46,182.82"/>
    </edge>
    <edge id=":2495826723_7" function="internal">
        <lane id=":2495826723_7_0" index="0" disallow="taxi bus truck" speed="13.89" length="10.14" shape="391.66,173.39 401.88,171.70"/>
        <lane id=":2495826723_7_1" index="1" speed="13.89" length="10.14" shape="392.26,176.53 402.27,174.88"/>
        <lane id=":2495826723_7_2" index="2" disallow="motorcycle bicycle" speed="13.89" length="10.14" shape="392.86,179.67 402.65,178.06"/>
    </edge>
    <edge id=":2495828816_0" function="internal">
        <lane id=":2495828816_0_0" index="0" allow="delivery bicycle pedestrian" speed="5.11" length="4.93" shape="361.37,272.91 360.06,272.65 358.95,272.86 358.06,273.54 357.37,274.68"/>
    </edge>
    <edge id=":2495828816_1" function="internal">
        <lane id=":2495828816_1_0" index="0" allow="delivery bicycle pedestrian" speed="5.56" length="9.54" shape="361.37,272.91 359.02,271.74 357.44,270.13 356.64,268.09 356.61,265.63"/>
    </edge>
    <edge id=":2495828816_2" function="internal">
        <lane id=":2495828816_2_0" index="0" allow="delivery bicycle pedestrian" speed="3.65" length="4.67" shape="361.37,272.91 360.50,271.76 360.39,270.87 361.03,270.25 362.43,269.89"/>
    </edge>
    <edge id=":2495828816_3" function="internal">
        <lane id=":2495828816_3_0" index="0" allow="delivery bicycle pedestrian" speed="5.46" length="5.11" shape="359.78,266.05 359.81,267.34 360.26,268.40 361.13,269.26 362.43,269.89"/>
    </edge>
    <edge id=":2495828816_4" function="internal">
        <lane id=":2495828816_4_0" index="0" allow="delivery bicycle pedestrian" speed="5.56" length="9.01" shape="359.78,266.05 359.40,268.70 359.01,270.49 358.40,272.22 357.37,274.68"/>
    </edge>
    <edge id=":2495828816_5" function="internal">
        <lane id=":2495828816_5_0" index="0" allow="delivery bicycle pedestrian" speed="3.65" length="4.67" shape="359.78,266.05 358.83,267.14 357.98,267.43 357.24,266.92 356.61,265.63"/>
    </edge>
    <edge id=":2495828816_6" function="internal">
        <lane id=":2495828816_6_0" index="0" allow="delivery bicycle pedestrian" speed="5.56" length="8.15" shape="354.42,273.44 355.35,271.21 355.91,269.64 356.26,268.02 356.61,265.63"/>
    </edge>
    <edge id=":2495828816_7" function="internal">
        <lane id=":2495828816_7_0" index="0" allow="delivery bicycle pedestrian" speed="5.56" length="9.86" shape="354.42,273.44 355.80,271.14 357.59,269.78 359.81,269.37 362.43,269.89"/>
    </edge>
    <edge id=":2495828816_8" function="internal">
        <lane id=":2495828816_8_0" index="0" allow="delivery bicycle pedestrian" speed="3.65" length="4.67" shape="354.42,273.44 355.63,272.64 356.52,272.59 357.10,273.27 357.37,274.68"/>
    </edge>
    <edge id=":2901496213_0" function="internal">
        <lane id=":2901496213_0_0" index="0" disallow="taxi bus truck" speed="5.08" length="5.01" shape="419.47,188.83 419.09,187.51 418.38,186.62 417.35,186.15 415.99,186.12"/>
    </edge>
    <edge id=":2901496213_1" function="internal">
        <lane id=":2901496213_1_0" index="0" speed="9.09" length="18.52" shape="419.47,188.83 418.88,181.90 419.34,176.82 420.84,173.59 423.38,172.21"/>
    </edge>
    <edge id=":2901496213_2" function="internal">
        <lane id=":2901496213_2_0" index="0" disallow="motorcycle bicycle" speed="8.39" length="15.62" shape="419.47,188.83 419.08,183.29 419.68,179.20 421.27,176.56 423.85,175.38"/>
    </edge>
    <edge id=":2901496213_3" function="internal">
        <lane id=":2901496213_3_0" index="0" allow="delivery bicycle pedestrian" speed="3.65" length="4.67" shape="419.47,188.83 420.09,187.53 420.83,187.03 421.68,187.31 422.64,188.39"/>
    </edge>
    <edge id=":2901496213_4" function="internal">
        <lane id=":2901496213_4_0" index="0" allow="delivery bicycle pedestrian" speed="5.05" length="4.99" shape="425.26,184.87 423.95,185.26 423.08,185.98 422.64,187.02 422.64,188.39"/>
    </edge>
    <edge id=":2901496213_5" function="internal">
        <lane id=":2901496213_5_0" index="0" speed="13.89" length="9.60" shape="425.26,184.87 422.39,184.79 420.44,183.96 418.49,183.10 415.61,182.94"/>
        <lane id=":2901496213_5_1" index="1" disallow="motorcycle bicycle" speed="13.89" length="9.60" shape="424.32,178.54 415.22,179.77"/>
    </edge>
    <edge id=":2901496213_7" function="internal">
        <lane id=":2901496213_7_0" index="0" disallow="taxi bus truck" speed="13.89" length="8.96" shape="414.07,170.24 422.91,169.05"/>
        <lane id=":2901496213_7_1" index="1" speed="13.89" length="8.96" shape="414.46,173.41 423.38,172.21"/>
    </edge>
    <edge id=":2901496213_9" function="internal">
        <lane id=":2901496213_9_0" index="0" allow="delivery bicycle pedestrian" speed="9.11" length="18.42" shape="414.46,173.41 417.20,174.08 419.48,176.80 421.29,181.57 422.64,188.39"/>
    </edge>
    <edge id=":3088859026_0" function="internal">
        <lane id=":3088859026_0_0" index="0" disallow="tram rail_urban rail rail_electric ship" speed="3.65" length="4.67" shape="743.84,220.13 745.12,220.79 745.61,221.54 745.30,222.38 744.20,223.31"/>
    </edge>
    <edge id=":3088859029_0" function="internal">
        <lane id=":3088859029_0_0" index="0" disallow="tram rail_urban rail rail_electric ship" speed="6.85" length="9.79" shape="392.03,139.92 389.52,141.30 388.00,143.03 387.45,145.11 387.88,147.55"/>
    </edge>
    <edge id=":3088859029_1" function="internal">
        <lane id=":3088859029_1_0" index="0" disallow="tram rail_urban rail rail_electric ship" speed="3.65" length="2.56" shape="392.03,139.92 390.62,139.63 389.95,139.03 389.96,138.81"/>
    </edge>
    <edge id=":3088859029_4" function="internal">
        <lane id=":3088859029_4_0" index="0" disallow="tram rail_urban rail rail_electric ship" speed="3.65" length="2.11" shape="389.96,138.81 390.02,138.14 390.83,136.95"/>
    </edge>
    <edge id=":3088859029_2" function="internal">
        <lane id=":3088859029_2_0" index="0" disallow="tram rail_urban rail rail_electric ship" speed="6.07" length="9.07" shape="384.33,133.26 385.08,135.72 386.42,137.15 388.34,137.56 390.83,136.95"/>
    </edge>
    <edge id=":3088859029_3" function="internal">
        <lane id=":3088859029_3_0" index="0" disallow="tram rail_urban rail rail_electric ship" speed="13.89" length="14.75" shape="384.33,133.26 384.97,136.91 385.77,140.49 386.73,144.02 387.88,147.55"/>
    </edge>
    <edge id=":3088859031_0" function="internal">
        <lane id=":3088859031_0_0" index="0" disallow="taxi bus truck" speed="13.89" length="14.02" shape="459.43,179.80 445.57,181.86"/>
        <lane id=":3088859031_0_1" index="1" speed="13.89" length="14.02" shape="458.96,176.63 445.10,178.69"/>
    </edge>
    <edge id=":3088859031_2" function="internal">
        <lane id=":3088859031_2_0" index="0" disallow="tram rail_urban rail rail_electric ship" speed="9.93" length="22.18" shape="458.96,176.63 455.22,176.03 452.13,173.00 449.68,167.54 447.88,159.66"/>
    </edge>
    <edge id=":3088859031_3" function="internal">
        <lane id=":3088859031_3_0" index="0" disallow="taxi bus truck" speed="6.46" length="8.79" shape="451.04,159.14 451.75,161.54 453.00,163.15 454.77,163.96 457.08,163.97"/>
    </edge>
    <edge id=":3088859031_4" function="internal">
        <lane id=":3088859031_4_0" index="0" speed="7.29" length="11.50" shape="451.04,159.14 451.98,162.93 453.38,165.52 455.23,166.92 457.55,167.14"/>
    </edge>
    <edge id=":3088859031_5" function="internal">
        <lane id=":3088859031_5_0" index="0" speed="9.92" length="22.60" shape="451.04,159.14 451.78,167.20 451.04,173.15 448.81,176.98 445.10,178.69"/>
    </edge>
    <edge id=":3088859031_6" function="internal">
        <lane id=":3088859031_6_0" index="0" disallow="motorcycle bicycle" speed="9.30" length="19.73" shape="451.04,159.14 451.56,165.82 450.66,170.78 448.35,174.01 444.63,175.53"/>
    </edge>
    <edge id=":3088859031_7" function="internal">
        <lane id=":3088859031_7_0" index="0" disallow="tram rail_urban rail rail_electric ship" speed="3.65" length="4.67" shape="451.04,159.14 450.44,160.46 449.71,160.98 448.86,160.71 447.88,159.66"/>
    </edge>
    <edge id=":3088859031_8" function="internal">
        <lane id=":3088859031_8_0" index="0" disallow="tram rail_urban rail rail_electric ship" speed="6.48" length="9.03" shape="443.22,166.03 445.60,165.33 447.16,164.03 447.92,162.14 447.88,159.66"/>
    </edge>
    <edge id=":3088859031_9" function="internal">
        <lane id=":3088859031_9_0" index="0" speed="13.89" length="14.25" shape="443.22,166.03 447.46,165.91 450.38,166.59 453.31,167.26 457.55,167.14"/>
        <lane id=":3088859031_9_1" index="1" disallow="motorcycle bicycle" speed="13.89" length="14.25" shape="444.16,172.36 458.02,170.30"/>
    </edge>
    <edge id=":3382293991_0" function="internal">
        <lane id=":3382293991_0_0" index="0" disallow="tram rail_urban rail rail_electric ship" speed="13.89" length="5.92" shape="333.74,51.17 338.46,54.75"/>
    </edge>
    <edge id=":3382294020_0" function="internal">
        <lane id=":3382294020_0_0" index="0" disallow="tram rail_urban rail rail_electric ship" speed="13.89" length="5.02" shape="378.63,98.01 379.45,102.96"/>
    </edge>
    <edge id=":3382294043_0" function="internal">
        <lane id=":3382294043_0_0" index="0" disallow="tram rail_urban rail rail_electric ship" speed="13.89" length="4.94" shape="327.63,123.96 323.63,121.06"/>
    </edge>
    <edge id=":3382294043_1" function="internal">
        <lane id=":3382294043_1_0" index="0" disallow="tram rail_urban rail rail_electric ship" speed="3.65" length="2.34" shape="327.63,123.96 327.14,122.61 327.29,121.73"/>
    </edge>
    <edge id=":3382294043_4" function="internal">
        <lane id=":3382294043_4_0" index="0" disallow="tram rail_urban rail rail_electric ship" speed="3.65" length="2.34" shape="327.29,121.73 328.08,121.32 329.52,121.39"/>
    </edge>
    <edge id=":3382294043_2" function="internal">
        <lane id=":3382294043_2_0" index="0" disallow="tram rail_urban rail rail_electric ship" speed="13.89" length="4.98" shape="325.49,118.46 329.52,121.39"/>
    </edge>
    <edge id=":3382294043_3" function="internal">
        <lane id=":3382294043_3_0" index="0" disallow="tram rail_urban rail rail_electric ship" speed="3.65" length="2.34" shape="325.49,118.46 326.00,119.81 325.86,120.69"/>
    </edge>
    <edge id=":3382294043_5" function="internal">
        <lane id=":3382294043_5_0" index="0" disallow="tram rail_urban rail rail_electric ship" speed="3.65" length="2.34" shape="325.86,120.69 325.07,121.11 323.63,121.06"/>
    </edge>
    <edge id=":366384066_0" function="internal">
        <lane id=":366384066_0_0" index="0" allow="delivery bicycle pedestrian" speed="3.65" length="4.67" shape="192.75,662.53 191.89,663.69 191.07,664.05 190.29,663.61 189.55,662.37"/>
    </edge>
    <edge id=":366385250_0" function="internal">
        <lane id=":366385250_0_0" index="0" allow="delivery bicycle pedestrian" speed="5.47" length="5.03" shape="121.09,298.08 120.01,298.08 119.03,298.53 118.15,299.45 117.36,300.83"/>
    </edge>
    <edge id=":366385250_1" function="internal">
        <lane id=":366385250_1_0" index="0" allow="delivery bicycle pedestrian" speed="5.56" length="8.70" shape="121.09,298.08 118.56,297.56 116.84,297.12 115.20,296.47 112.90,295.30"/>
    </edge>
    <edge id=":366385250_2" function="internal">
        <lane id=":366385250_2_0" index="0" allow="delivery bicycle pedestrian" speed="3.65" length="4.67" shape="121.09,298.08 120.08,297.05 119.86,296.19 120.41,295.49 121.75,294.95"/>
    </edge>
    <edge id=":366385250_3" function="internal">
        <lane id=":366385250_3_0" index="0" allow="delivery bicycle pedestrian" speed="5.56" length="8.10" shape="114.14,292.33 116.27,293.43 117.80,294.04 119.40,294.46 121.75,294.95"/>
    </edge>
    <edge id=":366385250_4" function="internal">
        <lane id=":366385250_4_0" index="0" allow="delivery bicycle pedestrian" speed="5.56" length="10.22" shape="114.14,292.33 116.49,294.01 117.80,295.99 118.09,298.26 117.36,300.83"/>
    </edge>
    <edge id=":366385250_5" function="internal">
        <lane id=":366385250_5_0" index="0" allow="delivery bicycle pedestrian" speed="3.66" length="4.70" shape="114.14,292.33 114.94,293.54 115.01,294.44 114.33,295.02 112.90,295.30"/>
    </edge>
    <edge id=":366385250_6" function="internal">
        <lane id=":366385250_6_0" index="0" allow="delivery bicycle pedestrian" speed="5.15" length="5.02" shape="114.45,299.49 114.82,298.22 114.68,297.09 114.05,296.12 112.90,295.30"/>
    </edge>
    <edge id=":366385250_7" function="internal">
        <lane id=":366385250_7_0" index="0" allow="delivery bicycle pedestrian" speed="5.56" length="9.37" shape="114.45,299.49 115.86,297.13 117.55,295.59 119.51,294.86 121.75,294.95"/>
    </edge>
    <edge id=":366385250_8" function="internal">
        <lane id=":366385250_8_0" index="0" allow="delivery bicycle pedestrian" speed="3.65" length="4.67" shape="114.45,299.49 115.68,298.73 116.57,298.70 117.13,299.40 117.36,300.83"/>
    </edge>
    <edge id=":366392650_0" function="internal">
        <lane id=":366392650_0_0" index="0" allow="delivery bicycle pedestrian" speed="3.65" length="4.67" shape="72.89,468.98 71.80,469.93 70.92,470.11 70.26,469.51 69.79,468.14"/>
    </edge>
    <edge id=":366412896_0" function="internal">
        <lane id=":366412896_0_0" index="0" disallow="tram rail_urban rail rail_electric ship" speed="13.89" length="10.33" shape="470.50,304.43 469.54,307.30 468.75,309.29 467.80,311.21 466.35,313.87"/>
    </edge>
    <edge id=":366412896_1" function="internal">
        <lane id=":366412896_1_0" index="0" allow="delivery bicycle pedestrian" speed="6.97" length="5.19" shape="470.50,304.43 469.22,306.95 467.38,308.43"/>
    </edge>
    <edge id=":366412896_2" function="internal">
        <lane id=":366412896_2_0" index="0" disallow="tram rail_urban rail rail_electric ship" speed="3.65" length="2.34" shape="470.50,304.43 469.37,305.33 468.49,305.46"/>
    </edge>
    <edge id=":366412896_9" function="internal">
        <lane id=":366412896_9_0" index="0" allow="delivery bicycle pedestrian" speed="6.97" length="5.49" shape="467.38,308.43 464.97,308.85 461.99,308.23"/>
    </edge>
    <edge id=":366412896_10" function="internal">
        <lane id=":366412896_10_0" index="0" disallow="tram rail_urban rail rail_electric ship" speed="3.65" length="2.34" shape="468.49,305.46 467.85,304.83 467.46,303.44"/>
    </edge>
    <edge id=":366412896_3" function="internal">
        <lane id=":366412896_3_0" index="0" disallow="tram rail_urban rail rail_electric ship" speed="5.19" length="5.44" shape="463.05,305.21 464.61,305.55 465.87,305.37 466.82,304.67 467.46,303.44"/>
    </edge>
    <edge id=":366412896_4" function="internal">
        <lane id=":366412896_4_0" index="0" disallow="tram rail_urban rail rail_electric ship" speed="6.74" length="11.02" shape="463.05,305.21 465.79,306.64 467.26,308.56 467.44,310.97 466.35,313.87"/>
    </edge>
    <edge id=":366412896_5" function="internal">
        <lane id=":366412896_5_0" index="0" allow="delivery bicycle pedestrian" speed="3.65" length="4.67" shape="463.05,305.21 463.91,306.36 464.03,307.25 463.38,307.87 461.99,308.23"/>
    </edge>
    <edge id=":366412896_6" function="internal">
        <lane id=":366412896_6_0" index="0" allow="delivery bicycle pedestrian" speed="4.88" length="5.21" shape="463.55,312.32 464.07,310.95 463.98,309.81 463.28,308.91 461.99,308.23"/>
    </edge>
    <edge id=":366412896_7" function="internal">
        <lane id=":366412896_7_0" index="0" disallow="tram rail_urban rail rail_electric ship" speed="13.89" length="9.73" shape="463.55,312.32 464.94,309.79 465.82,308.02 466.54,306.18 467.46,303.44"/>
    </edge>
    <edge id=":366412896_8" function="internal">
        <lane id=":366412896_8_0" index="0" disallow="tram rail_urban rail rail_electric ship" speed="3.65" length="2.34" shape="463.55,312.32 464.83,311.66 465.72,311.69"/>
    </edge>
    <edge id=":366412896_11" function="internal">
        <lane id=":366412896_11_0" index="0" disallow="tram rail_urban rail rail_electric ship" speed="3.65" length="2.34" shape="465.72,311.69 466.23,312.43 466.35,313.87"/>
    </edge>
    <edge id=":366419567_0" function="internal">
        <lane id=":366419567_0_0" index="0" disallow="tram rail_urban rail rail_electric ship" speed="3.65" length="4.67" shape="754.56,490.76 755.40,491.93 755.48,492.82 754.82,493.43 753.42,493.74"/>
    </edge>
    <edge id=":366422345_0" function="internal">
        <lane id=":366422345_0_0" index="0" allow="delivery bicycle pedestrian" speed="5.46" length="4.11" shape="123.84,301.03 123.49,299.92 122.94,299.07 122.21,298.47 121.29,298.13"/>
    </edge>
    <edge id=":366422345_1" function="internal">
        <lane id=":366422345_1_0" index="0" allow="delivery bicycle pedestrian" speed="5.56" length="5.33" shape="123.84,301.03 122.86,295.79"/>
    </edge>
    <edge id=":366422345_2" function="internal">
        <lane id=":366422345_2_0" index="0" allow="delivery bicycle pedestrian" speed="3.65" length="4.67" shape="123.84,301.03 124.38,299.69 125.07,299.14 125.94,299.36 126.97,300.37"/>
    </edge>
    <edge id=":366422345_3" function="internal">
        <lane id=":366422345_3_0" index="0" allow="delivery bicycle pedestrian" speed="5.56" length="5.08" shape="126.03,295.38 126.97,300.37"/>
    </edge>
    <edge id=":366422345_4" function="internal">
        <lane id=":366422345_4_0" index="0" allow="delivery bicycle pedestrian" speed="5.20" length="6.79" shape="126.03,295.38 125.93,296.99 125.10,297.99 123.56,298.37 121.29,298.13"/>
    </edge>
    <edge id=":366422345_5" function="internal">
        <lane id=":366422345_5_0" index="0" allow="delivery bicycle pedestrian" speed="3.65" length="4.67" shape="126.03,295.38 125.40,296.67 124.66,297.17 123.81,296.88 122.86,295.79"/>
    </edge>
    <edge id=":366422345_6" function="internal">
        <lane id=":366422345_6_0" index="0" allow="delivery bicycle pedestrian" speed="2.91" length="1.21" shape="121.95,294.99 122.86,295.79"/>
    </edge>
    <edge id=":366422345_7" function="internal">
        <lane id=":366422345_7_0" index="0" allow="delivery bicycle pedestrian" speed="5.56" length="7.81" shape="121.95,294.99 123.78,295.65 125.23,296.76 126.30,298.34 126.97,300.37"/>
    </edge>
    <edge id=":366422345_8" function="internal">
        <lane id=":366422345_8_0" index="0" allow="delivery bicycle pedestrian" speed="3.65" length="4.67" shape="121.95,294.99 122.96,296.02 123.18,296.89 122.63,297.59 121.29,298.13"/>
    </edge>
    <edge id=":366428572_0" function="internal">
        <lane id=":366428572_0_0" index="0" allow="delivery bicycle pedestrian" speed="3.65" length="4.67" shape="82.98,108.38 83.06,106.94 83.55,106.19 84.45,106.13 85.74,106.76"/>
    </edge>
    <edge id=":366428651_0" function="internal">
        <lane id=":366428651_0_0" index="0" allow="delivery bicycle pedestrian" speed="5.12" length="5.11" shape="467.81,203.01 467.41,201.63 466.70,200.71 465.66,200.23 464.29,200.20"/>
    </edge>
    <edge id=":366428651_1" function="internal">
        <lane id=":366428651_1_0" index="0" disallow="tram rail_urban rail rail_electric ship" speed="13.89" length="9.58" shape="467.81,203.01 466.60,193.51"/>
    </edge>
    <edge id=":366428651_2" function="internal">
        <lane id=":366428651_2_0" index="0" allow="delivery bicycle pedestrian" speed="6.84" length="2.18" shape="467.81,203.01 467.80,200.83"/>
    </edge>
    <edge id=":366428651_3" function="internal">
        <lane id=":366428651_3_0" index="0" disallow="tram rail_urban rail rail_electric ship" speed="3.65" length="2.34" shape="467.81,203.01 468.43,201.70 469.16,201.19"/>
    </edge>
    <edge id=":366428651_16" function="internal">
        <lane id=":366428651_16_0" index="0" allow="delivery bicycle pedestrian" speed="6.84" length="8.13" shape="467.80,200.83 467.80,200.17 468.71,198.04 470.54,196.61 473.28,195.89"/>
    </edge>
    <edge id=":366428651_17" function="internal">
        <lane id=":366428651_17_0" index="0" disallow="tram rail_urban rail rail_electric ship" speed="3.65" length="2.34" shape="469.16,201.19 470.01,201.47 470.97,202.55"/>
    </edge>
    <edge id=":366428651_4" function="internal">
        <lane id=":366428651_4_0" index="0" disallow="tram rail_urban rail rail_electric ship" speed="5.01" length="5.04" shape="473.65,199.07 472.31,199.42 471.42,200.12 470.97,201.16 470.97,202.55"/>
    </edge>
    <edge id=":366428651_5" function="internal">
        <lane id=":366428651_5_0" index="0" allow="delivery bicycle pedestrian" speed="5.56" length="9.42" shape="473.65,199.07 464.29,200.20"/>
    </edge>
    <edge id=":366428651_6" function="internal">
        <lane id=":366428651_6_0" index="0" disallow="tram rail_urban rail rail_electric ship" speed="6.87" length="10.25" shape="473.65,199.07 470.82,199.00 468.70,198.05 467.30,196.22 466.60,193.51"/>
    </edge>
    <edge id=":366428651_7" function="internal">
        <lane id=":366428651_7_0" index="0" allow="delivery bicycle pedestrian" speed="3.65" length="4.67" shape="473.65,199.07 472.36,198.41 471.88,197.66 472.18,196.82 473.28,195.89"/>
    </edge>
    <edge id=":366428651_8" function="internal">
        <lane id=":366428651_8_0" index="0" allow="delivery bicycle pedestrian" speed="5.06" length="5.07" shape="469.78,193.16 470.13,194.49 470.83,195.39 471.88,195.86 473.28,195.89"/>
    </edge>
    <edge id=":366428651_9" function="internal">
        <lane id=":366428651_9_0" index="0" disallow="tram rail_urban rail rail_electric ship" speed="13.89" length="9.46" shape="469.78,193.16 470.97,202.55"/>
    </edge>
    <edge id=":366428651_10" function="internal">
        <lane id=":366428651_10_0" index="0" allow="delivery bicycle pedestrian" speed="6.90" length="2.06" shape="469.78,193.16 469.72,195.22"/>
    </edge>
    <edge id=":366428651_11" function="internal">
        <lane id=":366428651_11_0" index="0" disallow="tram rail_urban rail rail_electric ship" speed="3.65" length="2.34" shape="469.78,193.16 469.12,194.44 468.37,194.93"/>
    </edge>
    <edge id=":366428651_18" function="internal">
        <lane id=":366428651_18_0" index="0" allow="delivery bicycle pedestrian" speed="6.90" length="8.07" shape="469.72,195.22 469.69,195.95 468.75,198.05 466.95,199.47 464.29,200.20"/>
    </edge>